Circuit: * C:\Users\walto\Desktop\Projects\Stream\Hardware\USB_Board_Assm\sim.asc

V2: Missing value, assumed 0V @ DC

Date: Sat Aug 15 22:09:42 2020
Total elapsed time: 0.035 seconds.

tnom = 27
temp = 27
method = trap
totiter = 217
traniter = 0
tranpoints = 0
accept = 0
rejected = 0
matrix size = 9
fillins = 0
solver = Normal
Matrix Compiler1: 376 bytes object code size  0.1/0.1/[0.0]
Matrix Compiler2: 633 bytes object code size  0.1/0.1/[0.0]

